<?xml version="1.0" encoding="UTF-8"?>

<!-- generated on 2023-08-11 16:10:46 by Eclipse SUMO sumo Version 1.14.1
<configuration xmlns:xsi="http://www.w3.org/2001/XMLSchema-instance" xsi:noNamespaceSchemaLocation="http://sumo.dlr.de/xsd/sumoConfiguration.xsd">

    <input>
        <net-file value="test.net.xml"/>
        <route-files value="test.rou.xml"/>
        <additional-files value="test.e2.xml,test.e3.xml"/>
    </input>

    <output>
        <save-state.rng value="true"/>
    </output>

    <time>
        <step-length value="1.0"/>
    </time>

    <processing>
        <time-to-teleport value="600"/>
    </processing>

    <report>
        <xml-validation value="never"/>
        <no-step-log value="true"/>
    </report>

    <traci_server>
        <remote-port value="6841"/>
    </traci_server>

    <random_number>
        <seed value="0"/>
    </random_number>

    <gui_only>
        <gui-settings-file value="gui.cfg"/>
        <quit-on-end value="true"/>
        <delay value="0"/>
    </gui_only>

</configuration>
