<?xml version="1.0" encoding="UTF-8"?>

<!-- generated on 2021-10-29 15:29:30 by Eclipse SUMO netedit Version 1.9.1
<configuration xmlns:xsi="http://www.w3.org/2001/XMLSchema-instance" xsi:noNamespaceSchemaLocation="http://sumo.dlr.de/xsd/netconvertConfiguration.xsd">

    <input>
        <sumo-net-file value="C:\Users\zhuho\Dropbox\programming\sumo\midblock\midblock\UMCRL\test1v1.net.xml"/>
    </input>

    <output>
        <output-file value="C:\Users\zhuho\Dropbox\programming\sumo\midblock\midblock\UMCRL\test1v1.net.xml"/>
    </output>

    <processing>
        <geometry.min-radius.fix.railways value="false"/>
        <geometry.max-grade.fix value="false"/>
        <offset.disable-normalization value="true"/>
        <lefthand value="false"/>
    </processing>

    <junctions>
        <no-internal-links value="true"/>
        <no-turnarounds value="true"/>
        <junctions.corner-detail value="5"/>
        <junctions.limit-turn-speed value="5.5"/>
        <rectangular-lane-cut value="false"/>
    </junctions>

    <pedestrian>
        <walkingareas value="false"/>
    </pedestrian>

    <report>
        <aggregate-warnings value="5"/>
    </report>

</configuration>
-->

<net version="1.9" junctionCornerDetail="5" limitTurnSpeed="5.50" xmlns:xsi="http://www.w3.org/2001/XMLSchema-instance" xsi:noNamespaceSchemaLocation="http://sumo.dlr.de/xsd/net_file.xsd">

    <location netOffset="0.00,0.00" convBoundary="-50.00,-10.00,50.00,20.00" origBoundary="-10000000000.00,-10000000000.00,10000000000.00,10000000000.00" projParameter="!"/>

    <edge id="gneE0" from="gneJ0" to="gneJ1" priority="-1">
        <lane id="gneE0_0" index="0" speed="13.89" length="30.00" width="0.75" shape="4.12,-10.00 4.12,20.00"/>
        <lane id="gneE0_1" index="1" speed="13.89" length="30.00" width="0.75" shape="3.38,-10.00 3.38,20.00"/>
        <lane id="gneE0_2" index="2" speed="13.89" length="30.00" width="0.75" shape="2.62,-10.00 2.62,20.00"/>
    </edge>
    <edge id="gneE1" from="gneJ2" to="gneJ3" priority="-1">
        <lane id="gneE1_0" index="0" speed="11.11" length="100.00" width="3.60" shape="50.00,1.80 -50.00,1.80"/>
    </edge>
    <edge id="gneE2" from="gneJ4" to="gneJ5" priority="-1">
        <lane id="gneE2_0" index="0" speed="11.11" length="100.00" width="3.60" shape="-50.00,5.40 50.00,5.40"/>
    </edge>
    <edge id="gneE3" from="gneJ1" to="gneJ0" priority="-1">
        <lane id="gneE3_0" index="0" speed="13.89" length="30.00" width="0.75" shape="0.38,20.00 0.38,-10.00"/>
        <lane id="gneE3_1" index="1" speed="13.89" length="30.00" width="0.75" shape="1.12,20.00 1.12,-10.00"/>
        <lane id="gneE3_2" index="2" speed="13.89" length="30.00" width="0.75" shape="1.88,20.00 1.88,-10.00"/>
    </edge>

    <junction id="gneJ0" type="dead_end" x="2.25" y="-10.00" incLanes="gneE3_0 gneE3_1 gneE3_2" intLanes="" shape="2.25,-10.00 0.00,-10.00 2.25,-10.00"/>
    <junction id="gneJ1" type="dead_end" x="2.25" y="20.00" incLanes="gneE0_0 gneE0_1 gneE0_2" intLanes="" shape="2.25,20.00 4.50,20.00 2.25,20.00"/>
    <junction id="gneJ2" type="dead_end" x="50.00" y="0.00" incLanes="" intLanes="" shape="50.00,0.00 50.00,3.60"/>
    <junction id="gneJ3" type="dead_end" x="-50.00" y="0.00" incLanes="gneE1_0" intLanes="" shape="-50.00,3.60 -50.00,0.00"/>
    <junction id="gneJ4" type="dead_end" x="-50.00" y="7.20" incLanes="" intLanes="" shape="-50.00,7.20 -50.00,3.60"/>
    <junction id="gneJ5" type="dead_end" x="50.00" y="7.20" incLanes="gneE2_0" intLanes="" shape="50.00,3.60 50.00,7.20"/>

</net>
