<?xml version="1.0" encoding="UTF-8"?>

<!-- generated on 04/05/21 11:10:15 by Eclipse SUMO GUI Version 1.7.0
-->

<configuration xmlns:xsi="http://www.w3.org/2001/XMLSchema-instance" xsi:noNamespaceSchemaLocation="http://sumo.dlr.de/xsd/sumoConfiguration.xsd">

    <input>
        <net-file value="C:\Users\zhuho\Dropbox\programming\sumo\midblock\midblock\testmvm(normal midblock)\test1v1.net.xml"/>
        <route-files value="C:\Users\zhuho\Dropbox\programming\sumo\midblock\midblock\testmvm(normal midblock)\test1v1.rou.xml"/>
    </input>
    <time>
        <begin value="0"/>
        <step-length value= "0.1"/>
    </time>
    <processing>
        <default.action-step-length value="1"/>
    </processing>
    <gui-only>
        <start value="true"/>
        <quit-on-end value="true"/>
	<delay value="100"/>
    </gui-only>  
              
</configuration>
