<routes><flow id="EN_S" begin="0" end="86400" vehsPerHour="118" route="EN_S" departLane="random" /><flow id="EN_W" begin="0" end="86400" vehsPerHour="197" route="EN_W" departLane="random" /><flow id="EN_N" begin="0" end="86400" vehsPerHour="86" route="EN_N" departLane="random" /><flow id="EE_S" begin="0" end="86400" vehsPerHour="76" route="EE_S" departLane="random" /><flow id="EE_W" begin="0" end="86400" vehsPerHour="186" route="EE_W" departLane="random" /><flow id="EE_N" begin="0" end="86400" vehsPerHour="95" route="EE_N" departLane="random" /><flow id="ES_S" begin="0" end="86400" vehsPerHour="100" route="ES_S" departLane="random" /><flow id="ES_W" begin="0" end="86400" vehsPerHour="193" route="ES_W" departLane="random" /><flow id="ES_N" begin="0" end="86400" vehsPerHour="110" route="ES_N" departLane="random" /><flow id="SE_W" begin="0" end="86400" vehsPerHour="80" route="SE_W" departLane="random" /><flow id="SE_N" begin="0" end="86400" vehsPerHour="189" route="SE_N" departLane="random" /><flow id="SE_E" begin="0" end="86400" vehsPerHour="98" route="SE_E" departLane="random" /><flow id="SS_W" begin="0" end="86400" vehsPerHour="89" route="SS_W" departLane="random" /><flow id="SS_N" begin="0" end="86400" vehsPerHour="194" route="SS_N" departLane="random" /><flow id="SS_E" begin="0" end="86400" vehsPerHour="89" route="SS_E" departLane="random" /><flow id="SW_W" begin="0" end="86400" vehsPerHour="90" route="SW_W" departLane="random" /><flow id="SW_N" begin="0" end="86400" vehsPerHour="214" route="SW_N" departLane="random" /><flow id="SW_E" begin="0" end="86400" vehsPerHour="100" route="SW_E" departLane="random" /><flow id="WS_N" begin="0" end="86400" vehsPerHour="107" route="WS_N" departLane="random" /><flow id="WS_E" begin="0" end="86400" vehsPerHour="227" route="WS_E" departLane="random" /><flow id="WS_S" begin="0" end="86400" vehsPerHour="104" route="WS_S" departLane="random" /><flow id="WW_N" begin="0" end="86400" vehsPerHour="97" route="WW_N" departLane="random" /><flow id="WW_E" begin="0" end="86400" vehsPerHour="217" route="WW_E" departLane="random" /><flow id="WW_S" begin="0" end="86400" vehsPerHour="107" route="WW_S" departLane="random" /><flow id="WN_N" begin="0" end="86400" vehsPerHour="106" route="WN_N" departLane="random" /><flow id="WN_E" begin="0" end="86400" vehsPerHour="219" route="WN_E" departLane="random" /><flow id="WN_S" begin="0" end="86400" vehsPerHour="89" route="WN_S" departLane="random" /><flow id="NW_E" begin="0" end="86400" vehsPerHour="100" route="NW_E" departLane="random" /><flow id="NW_S" begin="0" end="86400" vehsPerHour="201" route="NW_S" departLane="random" /><flow id="NW_W" begin="0" end="86400" vehsPerHour="92" route="NW_W" departLane="random" /><flow id="NN_E" begin="0" end="86400" vehsPerHour="92" route="NN_E" departLane="random" /><flow id="NN_S" begin="0" end="86400" vehsPerHour="199" route="NN_S" departLane="random" /><flow id="NN_W" begin="0" end="86400" vehsPerHour="104" route="NN_W" departLane="random" /><flow id="NE_E" begin="0" end="86400" vehsPerHour="93" route="NE_E" departLane="random" /><flow id="NE_S" begin="0" end="86400" vehsPerHour="228" route="NE_S" departLane="random" /><flow id="NE_W" begin="0" end="86400" vehsPerHour="80" route="NE_W" departLane="random" /></routes>>